McPAT (version 0.8 of Aug, 2010) is computing the target processor...
 
XML Parsing error inside file 'mcpat.xml'.
Error: File not found
At line 0, column 0.
